[General]
network = net
**.n_server = 5
**.c_dispatcher_service_time = 1
record-eventlog = false
sim-time-limit = 1000s
warmup-period = 250s
**.allocate.delay = exponential(3s)
**.serverList.n_servers = n_server
**.allocate.resourceModuleName = "resourcePool"
**.deallocate.resourceModuleName = "resourcePool"
**.sorg.numJobs = 1
**.resourcePool.amount = 6
**.allocate.resourceAmount = 1
**.deallocate.resourceAmount = 1
**.disp_delay.delay = 0.1s
